Version 4
SHEET 1 880 680
WIRE -496 -336 -576 -336
WIRE -352 -336 -432 -336
WIRE -576 -240 -576 -336
WIRE -576 -240 -704 -240
WIRE -544 -240 -576 -240
WIRE -352 -240 -352 -336
WIRE -352 -240 -384 -240
WIRE -320 -240 -352 -240
WIRE -240 -240 -320 -240
WIRE -160 -240 -240 -240
WIRE -80 -240 -160 -240
WIRE -16 -240 -80 -240
WIRE 144 -240 48 -240
WIRE -320 -224 -320 -240
WIRE -160 -224 -160 -240
WIRE -544 -208 -560 -208
WIRE 144 -192 144 -240
WIRE -704 -176 -704 -240
WIRE -80 -176 -80 -240
WIRE -560 -144 -560 -208
WIRE -464 -144 -560 -144
WIRE -576 -128 -576 -240
WIRE -464 -128 -464 -144
WIRE -320 -128 -320 -144
WIRE -320 -128 -464 -128
WIRE -160 -128 -160 -160
WIRE -160 -128 -320 -128
WIRE -704 -32 -704 -96
WIRE -576 -32 -576 -64
WIRE -576 -32 -704 -32
WIRE -464 -32 -464 -48
WIRE -464 -32 -576 -32
WIRE -160 -32 -160 -64
WIRE -160 -32 -464 -32
WIRE -80 -32 -80 -112
WIRE -80 -32 -160 -32
WIRE 144 -32 144 -128
WIRE 144 -32 -80 -32
WIRE -704 0 -704 -32
FLAG -704 0 0
FLAG 144 -240 VCC
FLAG -240 -240 VOUT
SYMBOL voltage -704 -192 R0
WINDOW 123 0 0 Left 0
WINDOW 39 0 0 Left 0
SYMATTR InstName V1
SYMATTR Value 12V
SYMBOL diode -432 -352 R90
WINDOW 0 0 32 VBottom 2
WINDOW 3 32 32 VTop 2
SYMATTR InstName D1
SYMATTR Value ES1B
SYMBOL res -336 -240 R0
SYMATTR InstName R1
SYMATTR Value 240R
SYMATTR SpiceLine tol=1% pwr=125mW
SYMBOL diode -144 -160 R180
WINDOW 0 24 64 Left 2
WINDOW 3 24 0 Left 2
SYMATTR InstName D2
SYMATTR Value ES1B
SYMBOL res -480 -144 R0
SYMATTR InstName R2
SYMATTR Value 464R
SYMATTR SpiceLine tol=1% pwr=125mW
SYMBOL cap -592 -128 R0
SYMATTR InstName C1
SYMATTR Value 0.1µ
SYMATTR SpiceLine V=25 Irms=1.34 Rser=0.0989014 Lser=0 mfg="KEMET" pn="C0805C104K3RAC" type="X7R"
SYMBOL cap -176 -128 R0
SYMATTR InstName C2
SYMATTR Value 10µ
SYMATTR SpiceLine V=10 Irms=13.8 Rser=0.00468332 Lser=0 mfg="KEMET" pn="C1210C106K8RAC" type="X7R"
SYMBOL cap -96 -176 R0
SYMATTR InstName C3
SYMATTR Value 1µ
SYMATTR SpiceLine V=25 Irms=3.41 Rser=0.0133158 Lser=0 mfg="KEMET" pn="C1206C105K3RAC" type="X7R"
SYMBOL schottky -16 -224 R270
WINDOW 0 32 32 VTop 2
WINDOW 3 0 32 VBottom 2
SYMATTR InstName D3
SYMATTR Value B140
SYMATTR Description Diode
SYMATTR Type diode
SYMBOL AutoGenerated\\LM317_TRANS -464 -224 R0
SYMATTR InstName U1
SYMBOL load 128 -192 R0
WINDOW 123 0 0 Left 0
WINDOW 39 0 0 Left 0
SYMATTR InstName I1
SYMATTR Value 200mA
TEXT -712 88 Left 2 !.model ES1B D(IS=123n, RS=42.0m, BV=100, IBV=5.00u, CJO=18.5p,  M=0.333, N=2.12, TT=28.8n)
TEXT -712 120 Left 2 !.model B140 D(IS=39.6u, RS=50.2m, BV=40.0, IBV=500u, CJO=265p, M=0.333, N=1.70, TT=7.20n)
TEXT -714 148 Left 2 !.op 1
